testData/IEEE39/baseCases/IEEE39bus_multiloads_xfmr4_smallX_v30__allload_per120.raw
0,   100.00, 30, 0, 1,  60.00     / PSS(R)E 30 RAW created by rawd30  WED, MAY 09 2018  12:25
ENGLAND 39 BUS SYSTEM
LOAD LEVEL
     1,' LBUS01     ', 345.0000,1,     0.000,     0.000,   1,   1,1.04101, -15.6079,   1
     2,' LBUS02     ', 345.0000,1,     0.000,     0.000,   1,   1,1.03217, -12.8517,   1
     3,' LBUS03     ', 345.0000,1,     0.000,     0.000,   1,   1,0.99738, -16.4772,   1
     4,' LBUS04     ', 345.0000,1,     0.000,     0.000,   1,   1,0.96771, -16.4561,   1
     5,' LBUS05     ', 345.0000,1,     0.000,     0.000,   1,   1,0.97314, -14.3156,   1
     6,' LBUS06     ', 345.0000,1,     0.000,     0.000,   1,   1,0.97705, -13.2915,   1
     7,' LBUS07     ', 345.0000,1,     0.000,     0.000,   1,   1,0.96367, -16.2115,   1
     8,' LBUS08     ', 345.0000,1,     0.000,     0.000,   1,   1,0.96219, -16.9104,   1
     9,' LBUS09     ', 345.0000,1,     0.000,     0.000,   1,   1,1.01420, -17.1567,   1
    10,' LBUS10     ', 345.0000,1,     0.000,     0.000,   1,   1,0.99100, -10.6085,   1
    11,' LBUS11     ', 345.0000,1,     0.000,     0.000,   1,   1,0.98464, -11.5256,   1
    12,' LBUS12     ', 154.0000,1,     0.000,     0.000,   1,   1,0.96694, -11.6362,   1
    13,' LBUS13     ', 345.0000,1,     0.000,     0.000,   1,   1,0.98566, -11.6121,   1
    14,' LBUS14     ', 345.0000,1,     0.000,     0.000,   1,   1,0.97896, -14.0063,   1
    15,' LBUS15     ', 345.0000,1,     0.000,     0.000,   1,   1,0.98184, -15.0947,   1
    16,' LBUS16     ', 345.0000,1,     0.000,     0.000,   1,   1,1.00206, -13.5371,   1
    17,' LBUS17     ', 345.0000,1,     0.000,     0.000,   1,   1,0.99726, -15.2931,   1
    18,' LBUS18     ', 345.0000,1,     0.000,     0.000,   1,   1,0.98737, -16.8437,   1
    19,' LBUS19     ', 345.0000,1,     0.000,     0.000,   1,   1,1.03602,  -7.1451,   1
    20,' LBUS20     ', 345.0000,1,     0.000,     0.000,   1,   1,0.98057,  -8.3772,   1
    21,' LBUS21     ', 345.0000,1,     0.000,     0.000,   1,   1,1.00589, -10.5115,   1
    22,' LBUS22     ', 345.0000,1,     0.000,     0.000,   1,   1,1.03423,  -4.9781,   1
    23,' LBUS23     ', 345.0000,1,     0.000,     0.000,   1,   1,1.02797,  -5.2258,   1
    24,' LBUS24     ', 345.0000,1,     0.000,     0.000,   1,   1,1.00972, -13.3900,   1
    25,' LBUS25     ', 345.0000,1,     0.000,     0.000,   1,   1,1.04330, -11.2571,   1
    26,' LBUS26     ', 345.0000,1,     0.000,     0.000,   1,   1,1.02642, -12.8844,   1
    27,' LBUS27     ', 345.0000,1,     0.000,     0.000,   1,   1,1.00502, -15.4516,   1
    28,' LBUS28     ', 345.0000,1,     0.000,     0.000,   1,   1,1.03129,  -8.5468,   1
    29,' LBUS29     ', 345.0000,1,     0.000,     0.000,   1,   1,1.03583,  -5.1586,   1
    30,' GBUS30     ',  22.0000,2,     0.000,     0.000,   1,   1,1.04750,  -9.9010,   1
    31,' GBUS31     ',  22.0000,3,     0.000,     0.000,   1,   1,0.98200,   0.0000,   1
    32,' GBUS32     ',  22.0000,2,     0.000,     0.000,   1,   1,0.98310,  -0.7433,   1
    33,' GBUS33     ',  22.0000,2,     0.000,     0.000,   1,   1,0.99720,  -0.8278,   1
    34,' GBUS34     ',  22.0000,2,     0.000,     0.000,   1,   1,1.01230,  -2.0946,   1
    35,' GBUS35     ',  22.0000,2,     0.000,     0.000,   1,   1,1.04930,   1.0693,   1
    36,' GBUS36     ',  22.0000,2,     0.000,     0.000,   1,   1,1.06350,   4.3503,   1
    37,' GBUS37     ',  22.0000,2,     0.000,     0.000,   1,   1,1.02780,  -3.0194,   1
    38,' GBUS38     ',  22.0000,2,     0.000,     0.000,   1,   1,1.02650,   3.3986,   1
    39,' GBUS39     ', 345.0000,2,     0.000,     0.000,   1,   1,1.03000, -17.2239,   1
   504,' LBUS504    ', 345.0000,1,     0.000,     0.000,   1,   1,0.96064, -17.5656,   1
   507,' LBUS507    ', 345.0000,1,     0.000,     0.000,   1,   1,0.96090, -16.7323,   1
   508,' LBUS508    ', 345.0000,1,     0.000,     0.000,   1,   1,0.95514, -18.0821,   1
   518,' LBUS518    ', 345.0000,1,     0.000,     0.000,   1,   1,0.98323, -17.1905,   1
 0 /End of Bus data, Begin Load data
     3,'1 ',1,   1,   1,   386.400,     2.880,     0.000,     0.000,     0.000,     0.000,   1
    12,'1 ',1,   1,   1,     9.000,   105.600,     0.000,     0.000,     0.000,     0.000,   1
    15,'1 ',1,   1,   1,   384.000,   183.600,     0.000,     0.000,     0.000,     0.000,   1
    16,'1 ',1,   1,   1,   395.280,    38.760,     0.000,     0.000,     0.000,     0.000,   1
    18,'1 ',1,   1,   1,   189.600,    36.000,     0.000,     0.000,     0.000,     0.000,   1
    20,'1 ',1,   1,   1,   753.600,   123.600,     0.000,     0.000,     0.000,     0.000,   1
    21,'1 ',1,   1,   1,   328.800,   138.000,     0.000,     0.000,     0.000,     0.000,   1
    23,'1 ',1,   1,   1,   297.000,   101.520,     0.000,     0.000,     0.000,     0.000,   1
    24,'1 ',1,   1,   1,   370.320,  -110.640,     0.000,     0.000,     0.000,     0.000,   1
    25,'1 ',1,   1,   1,   268.800,    56.640,     0.000,     0.000,     0.000,     0.000,   1
    26,'1 ',1,   1,   1,   166.800,    20.400,     0.000,     0.000,     0.000,     0.000,   1
    27,'1 ',1,   1,   1,   337.200,    90.600,     0.000,     0.000,     0.000,     0.000,   1
    28,'1 ',1,   1,   1,   247.200,    33.120,     0.000,     0.000,     0.000,     0.000,   1
    29,'1 ',1,   1,   1,   340.200,    32.280,     0.000,     0.000,     0.000,     0.000,   1
    31,'1 ',1,   1,   1,    11.040,     5.520,     0.000,     0.000,     0.000,     0.000,   1
    39,'1 ',1,   1,   1,  1324.800,   300.000,     0.000,     0.000,     0.000,     0.000,   1
   504,'1 ',1,   1,   1,   240.000,    88.320,     0.000,     0.000,     0.000,     0.000,   1
   504,'2 ',1,   1,   1,   240.000,    88.320,     0.000,     0.000,     0.000,     0.000,   1
   504,'3 ',1,   1,   1,   120.000,    44.160,     0.000,     0.000,     0.000,     0.000,   1
   507,'1 ',1,   1,   1,   112.224,    34.360,     0.000,     0.000,     0.000,     0.000,   1
   507,'2 ',1,   1,   1,   112.224,    34.360,     0.000,     0.000,     0.000,     0.000,   1
   507,'3 ',1,   1,   1,    56.112,    18.800,     0.000,     0.000,     0.000,     0.000,   1
   508,'1 ',1,   1,   1,   250.560,    91.320,     0.000,     0.000,     0.000,     0.000,   1
   508,'2 ',1,   1,   1,   250.560,    91.320,     0.000,     0.000,     0.000,     0.000,   1
   508,'3 ',1,   1,   1,   125.280,    35.200,     0.000,     0.000,     0.000,     0.000,   1
   518,'1 ',1,   1,   1,    75.840,    54.360,     0.000,     0.000,     0.000,     0.000,   1
   518,'2 ',1,   1,   1,    75.840,    54.360,     0.000,     0.000,     0.000,     0.000,   1
   518,'3 ',1,   1,   1,    44.160,    26.400,     0.000,     0.000,     0.000,     0.000,   1
 0 /End of Load data, Begin Generator data
    30,'1 ',   300.000,   242.115,  9900.000, -9999.000,1.04750,     0,   300.000,   0.00000,   0.22400,   0.00000,   0.00000,1.00000,1,  100.0,  9999.000, -9999.000,   1,1.0000
    31,'1 ',   835.663,   372.101,  9900.000, -9999.000,0.98200,     0,   612.000,   0.00000,   0.20290,   0.00000,   0.00000,1.00000,1,  100.0,  9999.000, -9999.000,   1,1.0000
    32,'1 ',   780.000,   347.170,  9900.000, -9999.000,0.98310,     0,   765.000,   0.00000,   0.28050,   0.00000,   0.00000,1.00000,1,  100.0,  9999.000, -9999.000,   1,1.0000
    33,'1 ',   758.400,   207.238,  9900.000, -9999.000,0.99720,     0,   700.000,   0.00000,   0.23300,   0.00000,   0.00000,1.00000,1,  100.0,  9999.000, -9999.000,   1,1.0000
    34,'1 ',   609.600,   229.958,  9900.000, -9999.000,1.01230,     0,   613.000,   0.00000,   0.20290,   0.00000,   0.00000,1.00000,1,  100.0,  9999.000, -9999.000,   1,1.0000
    35,'1 ',   780.000,   336.871,  9900.000, -9999.000,1.04930,     0,   798.000,   0.00000,   0.31400,   0.00000,   0.00000,1.00000,1,  100.0,  9999.000, -9999.000,   1,1.0000
    36,'1 ',   672.000,   182.572,  9900.000, -9999.000,1.06350,     0,   660.000,   0.00000,   0.21500,   0.00000,   0.00000,1.00000,1,  100.0,  9999.000, -9999.000,   1,1.0000
    37,'1 ',   648.000,    73.814,  9900.000, -9999.000,1.02780,     0,   660.000,   0.00000,   0.21500,   0.00000,   0.00000,1.00000,1,  100.0,  9999.000, -9999.000,   1,1.0000
    38,'1 ',   996.000,   127.802,  9900.000, -9999.000,1.02650,     0,  1151.000,   0.00000,   0.24600,   0.00000,   0.00000,1.00000,1,  100.0,  9999.000, -9999.000,   1,1.0000
    39,'1 ',  1200.000,   223.014,  9900.000, -9999.000,1.03000,     0,   100.000,   0.00000,   0.00500,   0.00000,   0.00000,1.00000,1,  100.0,  9999.000, -9999.000,   1,1.0000
 0 /End of Generator data, Begin Branch data
     1,      2,'1 ',   0.00350,   0.04110,   0.69870,    0.00,    0.00,    0.00,  0.00000,  0.00000,  0.00000,  0.00000,1,   0.00,   1,1.0000
     1,     39,'1 ',   0.00100,   0.02500,   0.75000,    0.00,    0.00,    0.00,  0.00000,  0.00000,  0.00000,  0.00000,1,   0.00,   1,1.0000
     2,      3,'1 ',   0.00130,   0.01510,   0.25720,    0.00,    0.00,    0.00,  0.00000,  0.00000,  0.00000,  0.00000,1,   0.00,   1,1.0000
     2,     25,'1 ',   0.00700,   0.00860,   0.14600,    0.00,    0.00,    0.00,  0.00000,  0.00000,  0.00000,  0.00000,1,   0.00,   1,1.0000
     3,      4,'1 ',   0.00130,   0.02130,   0.22140,    0.00,    0.00,    0.00,  0.00000,  0.00000,  0.00000,  0.00000,1,   0.00,   1,1.0000
     3,     18,'1 ',   0.00110,   0.01330,   0.21380,    0.00,    0.00,    0.00,  0.00000,  0.00000,  0.00000,  0.00000,1,   0.00,   1,1.0000
     4,      5,'1 ',   0.00080,   0.01280,   0.13420,    0.00,    0.00,    0.00,  0.00000,  0.00000,  0.00000,  0.00000,1,   0.00,   1,1.0000
     4,     14,'1 ',   0.00080,   0.01290,   0.13820,    0.00,    0.00,    0.00,  0.00000,  0.00000,  0.00000,  0.00000,1,   0.00,   1,1.0000
     5,      6,'1 ',   0.00020,   0.00260,   0.04340,    0.00,    0.00,    0.00,  0.00000,  0.00000,  0.00000,  0.00000,1,   0.00,   1,1.0000
     5,      8,'1 ',   0.00080,   0.01120,   0.14760,    0.00,    0.00,    0.00,  0.00000,  0.00000,  0.00000,  0.00000,1,   0.00,   1,1.0000
     6,      7,'1 ',   0.00060,   0.00920,   0.11300,    0.00,    0.00,    0.00,  0.00000,  0.00000,  0.00000,  0.00000,1,   0.00,   1,1.0000
     6,     11,'1 ',   0.00070,   0.00820,   0.13890,    0.00,    0.00,    0.00,  0.00000,  0.00000,  0.00000,  0.00000,1,   0.00,   1,1.0000
     7,      8,'1 ',   0.00040,   0.00460,   0.07800,    0.00,    0.00,    0.00,  0.00000,  0.00000,  0.00000,  0.00000,1,   0.00,   1,1.0000
     8,      9,'1 ',   0.00230,   0.03630,   0.38040,    0.00,    0.00,    0.00,  0.00000,  0.00000,  0.00000,  0.00000,1,   0.00,   1,1.0000
     9,     39,'1 ',   0.00100,   0.02500,   1.20000,    0.00,    0.00,    0.00,  0.00000,  0.00000,  0.00000,  0.00000,1,   0.00,   1,1.0000
    10,     11,'1 ',   0.00040,   0.00430,   0.07290,    0.00,    0.00,    0.00,  0.00000,  0.00000,  0.00000,  0.00000,1,   0.00,   1,1.0000
    10,     13,'1 ',   0.00040,   0.00430,   0.07290,    0.00,    0.00,    0.00,  0.00000,  0.00000,  0.00000,  0.00000,1,   0.00,   1,1.0000
    13,     14,'1 ',   0.00090,   0.01010,   0.17230,    0.00,    0.00,    0.00,  0.00000,  0.00000,  0.00000,  0.00000,1,   0.00,   1,1.0000
    14,     15,'1 ',   0.00180,   0.02170,   0.36600,    0.00,    0.00,    0.00,  0.00000,  0.00000,  0.00000,  0.00000,1,   0.00,   1,1.0000
    15,     16,'1 ',   0.00090,   0.00940,   0.17100,    0.00,    0.00,    0.00,  0.00000,  0.00000,  0.00000,  0.00000,1,   0.00,   1,1.0000
    16,     17,'1 ',   0.00070,   0.00890,   0.13420,    0.00,    0.00,    0.00,  0.00000,  0.00000,  0.00000,  0.00000,1,   0.00,   1,1.0000
    16,     19,'1 ',   0.00160,   0.01950,   0.30400,    0.00,    0.00,    0.00,  0.00000,  0.00000,  0.00000,  0.00000,1,   0.00,   1,1.0000
    16,     21,'1 ',   0.00080,   0.01350,   0.25480,    0.00,    0.00,    0.00,  0.00000,  0.00000,  0.00000,  0.00000,1,   0.00,   1,1.0000
    16,     24,'1 ',   0.00030,   0.00590,   0.06800,    0.00,    0.00,    0.00,  0.00000,  0.00000,  0.00000,  0.00000,1,   0.00,   1,1.0000
    17,     18,'1 ',   0.00070,   0.00820,   0.13190,    0.00,    0.00,    0.00,  0.00000,  0.00000,  0.00000,  0.00000,1,   0.00,   1,1.0000
    17,     27,'1 ',   0.00130,   0.01730,   0.32160,    0.00,    0.00,    0.00,  0.00000,  0.00000,  0.00000,  0.00000,1,   0.00,   1,1.0000
    21,     22,'1 ',   0.00080,   0.01400,   0.25650,    0.00,    0.00,    0.00,  0.00000,  0.00000,  0.00000,  0.00000,1,   0.00,   1,1.0000
    22,     23,'1 ',   0.00060,   0.00960,   0.18460,    0.00,    0.00,    0.00,  0.00000,  0.00000,  0.00000,  0.00000,1,   0.00,   1,1.0000
    23,     24,'1 ',   0.00220,   0.03500,   0.36100,    0.00,    0.00,    0.00,  0.00000,  0.00000,  0.00000,  0.00000,1,   0.00,   1,1.0000
    25,     26,'1 ',   0.00320,   0.03230,   0.51300,    0.00,    0.00,    0.00,  0.00000,  0.00000,  0.00000,  0.00000,1,   0.00,   1,1.0000
    26,     27,'1 ',   0.00140,   0.01470,   0.23960,    0.00,    0.00,    0.00,  0.00000,  0.00000,  0.00000,  0.00000,1,   0.00,   1,1.0000
    26,     28,'1 ',   0.00430,   0.04740,   0.78020,    0.00,    0.00,    0.00,  0.00000,  0.00000,  0.00000,  0.00000,1,   0.00,   1,1.0000
    26,     29,'1 ',   0.00570,   0.06250,   1.02900,    0.00,    0.00,    0.00,  0.00000,  0.00000,  0.00000,  0.00000,1,   0.00,   1,1.0000
    28,     29,'1 ',   0.00140,   0.01510,   0.24900,    0.00,    0.00,    0.00,  0.00000,  0.00000,  0.00000,  0.00000,1,   0.00,   1,1.0000
 0 /End of Branch data, Begin Transformer data
     2,    30,     0,'1 ',1,1,1,   0.00000,   0.00000,2,'            ',1,   1,1.0000
   0.00000,   0.01810,   100.00
1.02500,   0.000,   0.000,     0.00,     0.00,     0.00, 0,      0, 1.10000, 0.90000, 1.10000, 0.90000, 999, 0, 0.00000, 0.00000
1.00000,   0.000
     4,   504,     0,'1 ',1,1,1,   0.00000,   0.00000,2,'            ',1,   1,1.0000
   0.00000,   0.00300,   100.00
1.00000,   0.000,   0.000,     0.00,     0.00,     0.00, 1,     -6, 1.10000, 0.90000, 1.17000, 0.91000,  33, 0, 0.00000, 0.00000
1.00000,   0.000
     6,    31,     0,'1 ',1,1,1,   0.00000,   0.00000,2,'            ',1,   1,1.0000
   0.00000,   0.02500,   100.00
1.07000,   0.000,   0.000,     0.00,     0.00,     0.00, 1,      6, 1.10000, 0.90000, 1.17000, 0.91000,  33, 0, 0.00000, 0.00000
1.00000,   0.000
     7,   507,     0,'1 ',1,1,1,   0.00000,   0.00000,2,'            ',1,   1,1.0000
   0.00000,   0.00300,   100.00
1.00000,   0.000,   0.000,     0.00,     0.00,     0.00, 1,     -6, 1.10000, 0.90000, 1.17000, 0.91000,  33, 0, 0.00000, 0.00000
1.00000,   0.000
     8,   508,     0,'1 ',1,1,1,   0.00000,   0.00000,2,'            ',1,   1,1.0000
   0.00000,   0.00300,   100.00
1.00000,   0.000,   0.000,     0.00,     0.00,     0.00, 1,     -6, 1.10000, 0.90000, 1.17000, 0.91000,  33, 0, 0.00000, 0.00000
1.00000,   0.000
    10,    32,     0,'1 ',1,1,1,   0.00000,   0.00000,2,'            ',1,   1,1.0000
   0.00000,   0.02000,   100.00
1.07000,   0.000,   0.000,     0.00,     0.00,     0.00, 0,      0, 1.10000, 0.90000, 1.10000, 0.90000, 999, 0, 0.00000, 0.00000
1.00000,   0.000
    12,    11,     0,'1 ',1,1,1,   0.00000,   0.00000,2,'            ',1,   1,1.0000
   0.00160,   0.04350,   100.00
1.00600,   0.000,   0.000,     0.00,     0.00,     0.00, 0,      0, 1.10000, 0.90000, 1.10000, 0.90000, 999, 0, 0.00000, 0.00000
1.00000,   0.000
    12,    13,     0,'1 ',1,1,1,   0.00000,   0.00000,2,'            ',1,   1,1.0000
   0.00160,   0.04350,   100.00
1.00600,   0.000,   0.000,     0.00,     0.00,     0.00, 0,      0, 1.10000, 0.90000, 1.10000, 0.90000, 999, 0, 0.00000, 0.00000
1.00000,   0.000
    18,   518,     0,'1 ',1,1,1,   0.00000,   0.00000,2,'            ',1,   1,1.0000
   0.00000,   0.00300,   100.00
1.00000,   0.000,   0.000,     0.00,     0.00,     0.00, 1,     -6, 1.10000, 0.90000, 1.17000, 0.91000,  33, 0, 0.00000, 0.00000
1.00000,   0.000
    19,    20,     0,'1 ',1,1,1,   0.00000,   0.00000,2,'            ',1,   1,1.0000
   0.00070,   0.01380,   100.00
1.06000,   0.000,   0.000,     0.00,     0.00,     0.00, 0,      0, 1.10000, 0.90000, 1.10000, 0.90000, 999, 0, 0.00000, 0.00000
1.00000,   0.000
    19,    33,     0,'1 ',1,1,1,   0.00000,   0.00000,2,'            ',1,   1,1.0000
   0.00070,   0.01420,   100.00
1.07000,   0.000,   0.000,     0.00,     0.00,     0.00, 0,      0, 1.10000, 0.90000, 1.10000, 0.90000, 999, 0, 0.00000, 0.00000
1.00000,   0.000
    20,    34,     0,'1 ',1,1,1,   0.00000,   0.00000,2,'            ',1,   1,1.0000
   0.00090,   0.01800,   100.00
1.00900,   0.000,   0.000,     0.00,     0.00,     0.00, 0,      0, 1.10000, 0.90000, 1.10000, 0.90000, 999, 0, 0.00000, 0.00000
1.00000,   0.000
    22,    35,     0,'1 ',1,1,1,   0.00000,   0.00000,2,'            ',1,   1,1.0000
   0.00000,   0.01430,   100.00
1.02500,   0.000,   0.000,     0.00,     0.00,     0.00, 0,      0, 1.10000, 0.90000, 1.10000, 0.90000, 999, 0, 0.00000, 0.00000
1.00000,   0.000
    23,    36,     0,'1 ',1,1,1,   0.00000,   0.00000,2,'            ',1,   1,1.0000
   0.00050,   0.02720,   100.00
1.00000,   0.000,   0.000,     0.00,     0.00,     0.00, 0,      0, 1.10000, 0.90000, 1.10000, 0.90000, 999, 0, 0.00000, 0.00000
1.00000,   0.000
    25,    37,     0,'1 ',1,1,1,   0.00000,   0.00000,2,'            ',1,   1,1.0000
   0.00060,   0.02320,   100.00
1.02500,   0.000,   0.000,     0.00,     0.00,     0.00, 0,      0, 1.10000, 0.90000, 1.10000, 0.90000, 999, 0, 0.00000, 0.00000
1.00000,   0.000
    29,    38,     0,'1 ',1,1,1,   0.00000,   0.00000,2,'            ',1,   1,1.0000
   0.00080,   0.01560,   100.00
1.02500,   0.000,   0.000,     0.00,     0.00,     0.00, 0,      0, 1.10000, 0.90000, 1.10000, 0.90000, 999, 0, 0.00000, 0.00000
1.00000,   0.000
 0 /End of Transformer data, Begin Area interchange data
 0 /End of Area interchange data, Begin Two-terminal dc line data
 0 /End of Two-terminal dc line data, Begin VSC dc line data
 0 /End of VSC dc line data, Begin Switched shunt data
 0 /End of Switched shunt data, Begin Impedance correction table data
 0 /End of Impedance correction table data, Begin Multi-terminal dc line data
 0 /End of Multi-terminal dc line data, Begin Multi-section line data
 0 /End of Multi-section line data, Begin Zone data
 0 /End of Zone data, Begin Inter-area transfer data
 0 /End of Inter-area transfer data, Begin Owner data
 0 /End of Owner data, Begin FACTS device data
 0 /End of FACTS device data
